# File generated by Flopy version 3.3.6 on 06/15/2023 at 16:24:05.
BEGIN options
END options

BEGIN timing
  TDIS6  model_callant.tdis
END timing

BEGIN models
  gwf6  model_callant.nam  model_callant
END models

BEGIN exchanges
END exchanges

BEGIN solutiongroup  1
  ims6  model_callant.ims  model_callant
END solutiongroup  1

