# File generated by Flopy version 3.3.6 on 06/15/2023 at 16:24:05.
BEGIN options
  SAVE_FLOWS
END options

BEGIN packages
  DIS6  model_callant.dis  dis
  NPF6  model_callant.npf  npf
  RCH6  model_callant.rcha  rch
  IC6  model_callant.ic  ic
  CHD6  model_callant.chd  chd
  OC6  model_callant.oc  oc
END packages

