# File generated by Flopy version 3.3.6 on 06/15/2023 at 16:24:05.
BEGIN options
  BUDGET  FILEOUT  model_callant.cbc
  HEAD  FILEOUT  model_callant.hds
END options

BEGIN period  1
  SAVE  HEAD  ALL
  SAVE  BUDGET  ALL
END period  1

