# File generated by Flopy version 3.3.6 on 06/15/2023 at 15:46:49.
BEGIN options
END options

BEGIN timing
  TDIS6  model_callantsoog.tdis
END timing

BEGIN models
  gwf6  model_callantsoog.nam  model_callantsoog
END models

BEGIN exchanges
END exchanges

BEGIN solutiongroup  1
  ims6  model_callantsoog.ims  model_callantsoog
END solutiongroup  1

