# File generated by Flopy version 3.3.6 on 06/15/2023 at 15:46:49.
BEGIN options
  SAVE_FLOWS
END options

BEGIN packages
  DIS6  model_callantsoog.dis  dis
  NPF6  model_callantsoog.npf  npf
  RCH6  model_callantsoog.rcha  rch
  IC6  model_callantsoog.ic  ic
  CHD6  model_callantsoog.chd  chd
  OC6  model_callantsoog.oc  oc
END packages

