# File generated by Flopy version 3.3.6 on 06/15/2023 at 15:46:49.
BEGIN options
  LENGTH_UNITS  meters
  XORIGIN       0.00000000
  YORIGIN       0.00000000
END options

BEGIN dimensions
  NLAY  1
  NROW  14
  NCOL  33
END dimensions

BEGIN griddata
  delr
    CONSTANT      10.00000000
  delc
    CONSTANT      10.00000000
  top
    CONSTANT      20.00000000
  botm
    CONSTANT       0.00000000
END griddata

