# File generated by Flopy version 3.3.6 on 06/15/2023 at 15:46:49.
BEGIN options
  READASARRAYS
END options

BEGIN period  1
  recharge
    CONSTANT  5.00000000E-04
END period  1

