# File generated by Flopy version 3.3.6 on 06/15/2023 at 15:46:49.
BEGIN options
  SAVE_SPECIFIC_DISCHARGE
END options

BEGIN griddata
  icelltype
    CONSTANT  0
  k
    CONSTANT      30.00000000
END griddata

