# File generated by Flopy version 3.3.6 on 06/15/2023 at 15:46:49.
BEGIN options
  COMPLEXITY  simple
END options

