# File generated by Flopy version 3.3.6 on 06/15/2023 at 15:46:49.
BEGIN options
  BUDGET  FILEOUT  model_callantsoog.cbc
  HEAD  FILEOUT  model_callantsoog.hds
END options

BEGIN period  1
  SAVE  HEAD  ALL
  SAVE  BUDGET  ALL
END period  1

