# File generated by Flopy version 3.3.6 on 06/15/2023 at 15:46:49.
BEGIN options
END options

BEGIN dimensions
  MAXBOUND  90
END dimensions

BEGIN period  1
  1 1 1      -0.30000000
  1 2 1      -0.30000000
  1 3 1      -0.30000000
  1 4 1      -0.30000000
  1 5 1      -0.30000000
  1 6 1      -0.30000000
  1 7 1      -0.30000000
  1 8 1      -0.30000000
  1 9 1      -0.30000000
  1 10 1      -0.30000000
  1 11 1      -0.30000000
  1 12 1      -0.30000000
  1 13 1      -0.30000000
  1 14 1      -0.30000000
  1 1 2      -0.30000000
  1 14 2      -0.30000000
  1 1 3      -0.30000000
  1 14 3      -0.30000000
  1 1 4      -0.30000000
  1 14 4      -0.30000000
  1 1 5      -0.30000000
  1 14 5      -0.30000000
  1 1 6      -0.30000000
  1 14 6      -0.30000000
  1 1 7      -0.30000000
  1 14 7      -0.30000000
  1 1 8      -0.30000000
  1 14 8      -0.30000000
  1 1 9      -0.30000000
  1 14 9      -0.30000000
  1 1 10      -0.30000000
  1 14 10      -0.30000000
  1 1 11      -0.30000000
  1 14 11      -0.30000000
  1 1 12      -0.30000000
  1 14 12      -0.30000000
  1 1 13      -0.30000000
  1 14 13      -0.30000000
  1 1 14      -0.30000000
  1 14 14      -0.30000000
  1 1 15      -0.30000000
  1 14 15      -0.30000000
  1 1 16      -0.30000000
  1 14 16      -0.30000000
  1 1 17      -0.30000000
  1 14 17      -0.30000000
  1 1 18      -0.30000000
  1 14 18      -0.30000000
  1 1 19      -0.30000000
  1 14 19      -0.30000000
  1 1 20      -0.30000000
  1 14 20      -0.30000000
  1 1 21      -0.30000000
  1 14 21      -0.30000000
  1 1 22      -0.30000000
  1 14 22      -0.30000000
  1 1 23      -0.30000000
  1 14 23      -0.30000000
  1 1 24      -0.30000000
  1 14 24      -0.30000000
  1 1 25      -0.30000000
  1 14 25      -0.30000000
  1 1 26      -0.30000000
  1 14 26      -0.30000000
  1 1 27      -0.30000000
  1 14 27      -0.30000000
  1 1 28      -0.30000000
  1 14 28      -0.30000000
  1 1 29      -0.30000000
  1 14 29      -0.30000000
  1 1 30      -0.30000000
  1 14 30      -0.30000000
  1 1 31      -0.30000000
  1 14 31      -0.30000000
  1 1 32      -0.30000000
  1 14 32      -0.30000000
  1 1 33      -0.30000000
  1 2 33      -0.30000000
  1 3 33      -0.30000000
  1 4 33      -0.30000000
  1 5 33      -0.30000000
  1 6 33      -0.30000000
  1 7 33      -0.30000000
  1 8 33      -0.30000000
  1 9 33      -0.30000000
  1 10 33      -0.30000000
  1 11 33      -0.30000000
  1 12 33      -0.30000000
  1 13 33      -0.30000000
  1 14 33      -0.30000000
END period  1

